openDSS/documentation/VPP11_VLN.Txt

SYMMETRICAL COMPONENT VOLTAGES BY BUS (for 3-phase buses)

Bus        Mag:   V1 (kV)    p.u.     V2 (kV)   %V2/V1    V0 (kV)    %V0/V1

sourcebus    0.2309          1  1.129E-010  4.887E-008 1.502E-011 6.505E-009
n0             0.23     0.9958  1.124E-010  4.887E-008 1.487E-011 6.467E-009
n1           0.2291      0.992  1.12E-010  4.887E-008 1.474E-011 6.433E-009
n2           0.2283     0.9886  1.116E-010  4.887E-008 1.462E-011 6.403E-009
n3           0.2276     0.9857  1.112E-010  4.887E-008 1.451E-011 6.376E-009
n4            0.227     0.9831  1.11E-010  4.887E-008 1.442E-011 6.352E-009
n5           0.2266      0.981  1.107E-010  4.887E-008 1.435E-011 6.333E-009
n6           0.2262     0.9793  1.105E-010  4.887E-008 1.429E-011 6.317E-009
n7           0.2259      0.978  1.104E-010  4.887E-008 1.424E-011 6.305E-009
n8           0.2257     0.9772  1.103E-010  4.887E-008 1.421E-011 6.297E-009
n9           0.2256     0.9767  1.102E-010  4.887E-008 1.419E-011 6.293E-009
nbess        0.2256     0.9767  1.102E-010  4.887E-008 1.419E-011 6.293E-009
